!----------------------------------------------------------------------------------
! Users should add all user specific namelist changes below in the form of 
! namelist_var = new_namelist_value 
! NOTE: namelist variable rtm_tstep CAN ONLY be changed by modifying the value
!       of the xml variable ROF_NCPL in env_run.xml
! NOTE: if the xml variable ROF GRID in env_build.xml is set to 'null', then
!        the RTM build-namelist will set do_rtm to .false. - and will ignore 
!        any change below
!----------------------------------------------------------------------------------

frivinp_rtm = "/cluster/shared/noresm/regdata/rof/mosart/MOSART_routing_Global_0.5x0.5_c170601.nc"

